electric-grid/physical/synthetic/synAustinTD/models/syn-austin-D_only-v03/P3U/base/opendss/Master.dss
Clear

New Circuit.Full_Network bus1=st_mat pu=1.0 basekV=230.0 R1=0.00001 X1=0.00001 R0=0.00001 X0=0.00001

Redirect p3uhs5_1247/Transformers.dss
Redirect p3uhs5_1247/p3uhs5_1247--p3udt15899/Transformers.dss
Redirect p3uhs5_1247/p3uhs5_1247--p3udt17790/Transformers.dss
Redirect p3uhs5_1247/p3uhs5_1247--p3udt31388/Transformers.dss
Redirect p3uhs5_1247/p3uhs5_1247--p3udt10526/Transformers.dss
Redirect p3uhs8_1247/Transformers.dss
Redirect p3uhs8_1247/p3uhs8_1247--p3umv17/Transformers.dss
Redirect p3uhs8_1247/p3uhs8_1247--p3udt11113/Transformers.dss
Redirect p3uhs8_1247/p3uhs8_1247--p3udt23566/Transformers.dss
Redirect p3uhs8_1247/p3uhs8_1247--p3udt31404/Transformers.dss
Redirect p3uhs16_1247/Transformers.dss
Redirect p3uhs16_1247/p3uhs16_1247--p3udt16977/Transformers.dss
Redirect p3uhs16_1247/p3uhs16_1247--p3udt3100/Transformers.dss
Redirect p3uhs0_1247/p3uhs0_1247--p3udt31121/Transformers.dss
Redirect p3uhs0_1247/Transformers.dss
Redirect p3uhs0_1247/p3uhs0_1247--p3udt28845/Transformers.dss
Redirect p3uhs0_1247/p3uhs0_1247--p3udt22485/Transformers.dss
Redirect p3uhs18_1247/Transformers.dss
Redirect p3uhs18_1247/p3uhs18_1247--p3udt32182/Transformers.dss
Redirect p3uhs18_1247/p3uhs18_1247--p3udt7679/Transformers.dss
Redirect p3uhs17_1247/Transformers.dss
Redirect p3uhs17_1247/p3uhs17_1247--p3udt16962/Transformers.dss
Redirect p3uhs17_1247/p3uhs17_1247--p3udt31765/Transformers.dss
Redirect p3uhs20_1247/Transformers.dss
Redirect p3uhs20_1247/p3uhs20_1247--p3udt30735/Transformers.dss
Redirect p3uhs20_1247/p3uhs20_1247--p3udt15957/Transformers.dss
Redirect p3uhs20_1247/p3uhs20_1247--p3udt25015/Transformers.dss
Redirect p3uhs21_1247/Transformers.dss
Redirect p3uhs21_1247/p3uhs21_1247--p3udt5899/Transformers.dss
Redirect p3uhs21_1247/p3uhs21_1247--p3udt8885/Transformers.dss
Redirect p3uhs7_1247/p3uhs7_1247--p3udt25200/Transformers.dss
Redirect p3uhs7_1247/p3uhs7_1247--p3udt19128/Transformers.dss
Redirect p3uhs7_1247/p3uhs7_1247--p3udt9478/Transformers.dss
Redirect p3uhs7_1247/Transformers.dss
Redirect p3uhs19_1247/p3uhs19_1247--p3udt25232/Transformers.dss
Redirect p3uhs19_1247/p3uhs19_1247--p3udt13458/Transformers.dss
Redirect p3uhs19_1247/Transformers.dss
Redirect p3uhs22_1247/p3uhs22_1247--p3udt14640/Transformers.dss
Redirect p3uhs22_1247/Transformers.dss
Redirect p3uhs22_1247/p3uhs22_1247--p3udt29621/Transformers.dss
Redirect p3uhs3_1247/Transformers.dss
Redirect p3uhs3_1247/p3uhs3_1247--p3udt31518/Transformers.dss
Redirect p3uhs3_1247/p3uhs3_1247--p3udt11536/Transformers.dss
Redirect p3uhs3_1247/p3uhs3_1247--p3udt28548/Transformers.dss
Redirect p3uhs3_1247/p3uhs3_1247--p3udt20362/Transformers.dss
Redirect p3uhs3_1247/p3uhs3_1247--p3udt23531/Transformers.dss
Redirect p3uhs3_1247/p3uhs3_1247--p3udt3889/Transformers.dss
Redirect p3uhs14_1247/Transformers.dss
Redirect p3uhs14_1247/p3uhs14_1247--p3udt3365/Transformers.dss
Redirect p3uhs14_1247/p3uhs14_1247--p3udt2635/Transformers.dss
Redirect p3uhs14_1247/p3uhs14_1247--p3udt9594/Transformers.dss
Redirect p3uhs14_1247/p3uhs14_1247--p3udt448/Transformers.dss
Redirect p3uhs14_1247/p3uhs14_1247--p3udt2638/Transformers.dss
Redirect p3uhs11_1247/Transformers.dss
Redirect p3uhs11_1247/p3uhs11_1247--p3udt27353/Transformers.dss
Redirect p3uhs11_1247/p3uhs11_1247--p3udt20683/Transformers.dss
Redirect p3uhs13_1247/Transformers.dss
Redirect p3uhs13_1247/p3uhs13_1247--p3udt26287/Transformers.dss
Redirect p3uhs13_1247/p3uhs13_1247--p3udt16402/Transformers.dss
Redirect p3uhs13_1247/p3uhs13_1247--p3udt12740/Transformers.dss
Redirect p3uhs13_1247/p3uhs13_1247--p3udt28604/Transformers.dss
Redirect p3uhs4_1247/Transformers.dss
Redirect p3uhs4_1247/p3uhs4_1247--p3udt9213/Transformers.dss
Redirect p3uhs4_1247/p3uhs4_1247--p3udt10048/Transformers.dss
Redirect p3uhs4_1247/p3uhs4_1247--p3udt2856/Transformers.dss
Redirect p3uhs4_1247/p3uhs4_1247--p3udt14887/Transformers.dss
Redirect p3uhs10_1247/Transformers.dss
Redirect p3uhs10_1247/p3uhs10_1247--p3udt18580/Transformers.dss
Redirect p3uhs10_1247/p3uhs10_1247--p3udt19559/Transformers.dss
Redirect p3uhs10_1247/p3uhs10_1247--p3udt7392/Transformers.dss
Redirect p3uhs10_1247/p3uhs10_1247--p3udt19881/Transformers.dss
Redirect p3uhs15_1247/Transformers.dss
Redirect p3uhs15_1247/p3uhs15_1247--p3udt21571/Transformers.dss
Redirect p3uhs15_1247/p3uhs15_1247--p3udt27016/Transformers.dss
Redirect p3uhs15_1247/p3uhs15_1247--p3udt2707/Transformers.dss
Redirect p3uhs15_1247/p3uhs15_1247--p3udt29990/Transformers.dss
Redirect p3uhs15_1247/p3uhs15_1247--p3udt10674/Transformers.dss
Redirect p3uhs23_1247/p3uhs23_1247--p3udt6423/Transformers.dss
Redirect p3uhs23_1247/p3uhs23_1247--p3udt18382/Transformers.dss
Redirect p3uhs23_1247/p3uhs23_1247--p3udt10896/Transformers.dss
Redirect p3uhs23_1247/Transformers.dss
Redirect p3uhs6_1247/Transformers.dss
Redirect p3uhs6_1247/p3uhs6_1247--p3udt18941/Transformers.dss
Redirect p3uhs6_1247/p3uhs6_1247--p3udt31448/Transformers.dss
Redirect p3uhs6_1247/p3uhs6_1247--p3udt31726/Transformers.dss
Redirect p3uhs12_1247/Transformers.dss
Redirect p3uhs12_1247/p3uhs12_1247--p3udt14918/Transformers.dss
Redirect p3uhs12_1247/p3uhs12_1247--p3udt18678/Transformers.dss
Redirect p3uhs12_1247/p3uhs12_1247--p3udt23934/Transformers.dss
Redirect p3uhs12_1247/p3uhs12_1247--p3udt14513/Transformers.dss
Redirect p3uhs2_1247/Transformers.dss
Redirect p3uhs2_1247/p3uhs2_1247--p3udt11804/Transformers.dss
Redirect p3uhs2_1247/p3uhs2_1247--p3udt18029/Transformers.dss
Redirect p3uhs2_1247/p3uhs2_1247--p3udt31865/Transformers.dss
Redirect p3uhs2_1247/p3uhs2_1247--p3umv14/Transformers.dss
Redirect p3uhs2_1247/p3uhs2_1247--p3udt23951/Transformers.dss
Redirect p3uhs2_1247/p3uhs2_1247--p3umv35/Transformers.dss
Redirect p3uhs2_1247/p3uhs2_1247--p3udt27289/Transformers.dss
Redirect p3uhs2_1247/p3uhs2_1247--p3udt20296/Transformers.dss
Redirect p3uhs2_1247/p3uhs2_1247--p3udt20299/Transformers.dss
Redirect p3uhs2_1247/p3uhs2_1247--p3udt24404/Transformers.dss
Redirect p3uhs1_1247/Transformers.dss
Redirect p3uhs1_1247/p3uhs1_1247--p3udt17241/Transformers.dss
Redirect p3uhs1_1247/p3uhs1_1247--p3udt16112/Transformers.dss
Redirect p3uhs24_1247/Transformers.dss
Redirect p3uhs24_1247/p3uhs24_1247--p3udt7003/Transformers.dss
Redirect p3uhs24_1247/p3uhs24_1247--p3udt10352/Transformers.dss
Redirect p3uhs24_1247/p3uhs24_1247--p3udt28157/Transformers.dss
Redirect p3uhs25_1247/Transformers.dss
Redirect p3uhs25_1247/p3uhs25_1247--p3udt13676/Transformers.dss
Redirect p3uhs26_1247/p3uhs26_1247--p3udt15759/Transformers.dss
Redirect p3uhs26_1247/Transformers.dss
Redirect p3uhs26_1247/p3uhs26_1247--p3udt26126/Transformers.dss
Redirect p3uhs9_1247/Transformers.dss
Redirect p3uhs9_1247/p3uhs9_1247--p3udt22171/Transformers.dss
Redirect p3uhs9_1247/p3uhs9_1247--p3udt16174/Transformers.dss
Redirect p3uhs9_1247/p3uhs9_1247--p3udt32034/Transformers.dss
Redirect p3uhs27_1247/Transformers.dss
Redirect p3uhs27_1247/p3uhs27_1247--p3udt14575/Transformers.dss
Redirect subtransmission/Transformers.dss
Redirect p3uhs28_1247/Transformers.dss
Redirect p3uhs28_1247/p3uhs28_1247--p3udt23967/Transformers.dss
Redirect p3uhs5_1247/Regulators.dss
Redirect p3uhs0_1247/Regulators.dss
Redirect p3uhs8_1247/Regulators.dss
Redirect p3uhs18_1247/Regulators.dss
Redirect p3uhs17_1247/Regulators.dss
Redirect p3uhs20_1247/Regulators.dss
Redirect p3uhs16_1247/Regulators.dss
Redirect p3uhs21_1247/Regulators.dss
Redirect p3uhs7_1247/Regulators.dss
Redirect p3uhs19_1247/Regulators.dss
Redirect p3uhs22_1247/Regulators.dss
Redirect p3uhs3_1247/Regulators.dss
Redirect p3uhs11_1247/Regulators.dss
Redirect p3uhs13_1247/Regulators.dss
Redirect p3uhs4_1247/Regulators.dss
Redirect p3uhs14_1247/Regulators.dss
Redirect p3uhs10_1247/Regulators.dss
Redirect p3uhs15_1247/Regulators.dss
Redirect p3uhs23_1247/Regulators.dss
Redirect p3uhs6_1247/Regulators.dss
Redirect p3uhs12_1247/Regulators.dss
Redirect p3uhs1_1247/Regulators.dss
Redirect p3uhs24_1247/Regulators.dss
Redirect p3uhs2_1247/Regulators.dss
Redirect p3uhs25_1247/Regulators.dss
Redirect p3uhs26_1247/Regulators.dss
Redirect p3uhs9_1247/Regulators.dss
Redirect p3uhs27_1247/Regulators.dss
Redirect p3uhs28_1247/Regulators.dss
Redirect p3uhs5_1247/p3uhs5_1247--p3udt15899/Loads.dss
Redirect p3uhs5_1247/p3uhs5_1247--p3udt10526/Loads.dss
Redirect p3uhs5_1247/p3uhs5_1247--p3udt17790/Loads.dss
Redirect p3uhs5_1247/p3uhs5_1247--p3udt31388/Loads.dss
Redirect p3uhs8_1247/p3uhs8_1247--p3udt23566/Loads.dss
Redirect p3uhs8_1247/p3uhs8_1247--p3udt31404/Loads.dss
Redirect p3uhs8_1247/p3uhs8_1247--p3umv17/Loads.dss
Redirect p3uhs8_1247/p3uhs8_1247--p3udt11113/Loads.dss
Redirect p3uhs16_1247/p3uhs16_1247--p3udt16977/Loads.dss
Redirect p3uhs16_1247/p3uhs16_1247--p3udt3100/Loads.dss
Redirect p3uhs0_1247/p3uhs0_1247--p3udt31121/Loads.dss
Redirect p3uhs0_1247/p3uhs0_1247--p3udt28845/Loads.dss
Redirect p3uhs0_1247/p3uhs0_1247--p3udt22485/Loads.dss
Redirect p3uhs18_1247/p3uhs18_1247--p3udt32182/Loads.dss
Redirect p3uhs18_1247/p3uhs18_1247--p3udt7679/Loads.dss
Redirect p3uhs17_1247/p3uhs17_1247--p3udt16962/Loads.dss
Redirect p3uhs17_1247/p3uhs17_1247--p3udt31765/Loads.dss
Redirect p3uhs20_1247/p3uhs20_1247--p3udt30735/Loads.dss
Redirect p3uhs20_1247/p3uhs20_1247--p3udt15957/Loads.dss
Redirect p3uhs20_1247/p3uhs20_1247--p3udt25015/Loads.dss
Redirect p3uhs21_1247/p3uhs21_1247--p3udt5899/Loads.dss
Redirect p3uhs21_1247/p3uhs21_1247--p3udt8885/Loads.dss
Redirect p3uhs7_1247/p3uhs7_1247--p3udt25200/Loads.dss
Redirect p3uhs7_1247/p3uhs7_1247--p3udt19128/Loads.dss
Redirect p3uhs7_1247/p3uhs7_1247--p3udt9478/Loads.dss
Redirect p3uhs19_1247/p3uhs19_1247--p3udt25232/Loads.dss
Redirect p3uhs19_1247/p3uhs19_1247--p3udt13458/Loads.dss
Redirect p3uhs22_1247/p3uhs22_1247--p3udt14640/Loads.dss
Redirect p3uhs22_1247/p3uhs22_1247--p3udt29621/Loads.dss
Redirect p3uhs3_1247/p3uhs3_1247--p3udt31518/Loads.dss
Redirect p3uhs3_1247/p3uhs3_1247--p3udt11536/Loads.dss
Redirect p3uhs3_1247/p3uhs3_1247--p3udt28548/Loads.dss
Redirect p3uhs3_1247/p3uhs3_1247--p3udt20362/Loads.dss
Redirect p3uhs3_1247/p3uhs3_1247--p3udt23531/Loads.dss
Redirect p3uhs3_1247/p3uhs3_1247--p3udt3889/Loads.dss
Redirect p3uhs14_1247/p3uhs14_1247--p3udt3365/Loads.dss
Redirect p3uhs14_1247/p3uhs14_1247--p3udt2635/Loads.dss
Redirect p3uhs14_1247/p3uhs14_1247--p3udt9594/Loads.dss
Redirect p3uhs14_1247/p3uhs14_1247--p3udt448/Loads.dss
Redirect p3uhs14_1247/p3uhs14_1247--p3udt2638/Loads.dss
Redirect p3uhs11_1247/p3uhs11_1247--p3udt27353/Loads.dss
Redirect p3uhs11_1247/p3uhs11_1247--p3udt20683/Loads.dss
Redirect p3uhs13_1247/p3uhs13_1247--p3udt26287/Loads.dss
Redirect p3uhs13_1247/p3uhs13_1247--p3udt28604/Loads.dss
Redirect p3uhs13_1247/p3uhs13_1247--p3udt16402/Loads.dss
Redirect p3uhs13_1247/p3uhs13_1247--p3udt12740/Loads.dss
Redirect p3uhs4_1247/p3uhs4_1247--p3udt10048/Loads.dss
Redirect p3uhs4_1247/p3uhs4_1247--p3udt9213/Loads.dss
Redirect p3uhs4_1247/p3uhs4_1247--p3udt2856/Loads.dss
Redirect p3uhs4_1247/p3uhs4_1247--p3udt14887/Loads.dss
Redirect p3uhs10_1247/p3uhs10_1247--p3udt19559/Loads.dss
Redirect p3uhs10_1247/p3uhs10_1247--p3udt19881/Loads.dss
Redirect p3uhs10_1247/p3uhs10_1247--p3udt7392/Loads.dss
Redirect p3uhs10_1247/p3uhs10_1247--p3udt18580/Loads.dss
Redirect p3uhs15_1247/p3uhs15_1247--p3udt21571/Loads.dss
Redirect p3uhs15_1247/p3uhs15_1247--p3udt27016/Loads.dss
Redirect p3uhs15_1247/p3uhs15_1247--p3udt2707/Loads.dss
Redirect p3uhs15_1247/p3uhs15_1247--p3udt29990/Loads.dss
Redirect p3uhs15_1247/p3uhs15_1247--p3udt10674/Loads.dss
Redirect p3uhs23_1247/p3uhs23_1247--p3udt6423/Loads.dss
Redirect p3uhs23_1247/p3uhs23_1247--p3udt18382/Loads.dss
Redirect p3uhs23_1247/p3uhs23_1247--p3udt10896/Loads.dss
Redirect p3uhs6_1247/p3uhs6_1247--p3udt18941/Loads.dss
Redirect p3uhs6_1247/p3uhs6_1247--p3udt31448/Loads.dss
Redirect p3uhs6_1247/p3uhs6_1247--p3udt31726/Loads.dss
Redirect p3uhs12_1247/p3uhs12_1247--p3udt18678/Loads.dss
Redirect p3uhs12_1247/p3uhs12_1247--p3udt14918/Loads.dss
Redirect p3uhs12_1247/p3uhs12_1247--p3udt14513/Loads.dss
Redirect p3uhs12_1247/p3uhs12_1247--p3udt23934/Loads.dss
Redirect p3uhs2_1247/p3uhs2_1247--p3udt11804/Loads.dss
Redirect p3uhs2_1247/p3uhs2_1247--p3udt18029/Loads.dss
Redirect p3uhs2_1247/p3uhs2_1247--p3udt31865/Loads.dss
Redirect p3uhs2_1247/p3uhs2_1247--p3umv14/Loads.dss
Redirect p3uhs2_1247/p3uhs2_1247--p3udt23951/Loads.dss
Redirect p3uhs2_1247/p3uhs2_1247--p3umv35/Loads.dss
Redirect p3uhs2_1247/p3uhs2_1247--p3udt27289/Loads.dss
Redirect p3uhs2_1247/p3uhs2_1247--p3udt20296/Loads.dss
Redirect p3uhs2_1247/p3uhs2_1247--p3udt20299/Loads.dss
Redirect p3uhs2_1247/p3uhs2_1247--p3udt24404/Loads.dss
Redirect p3uhs1_1247/p3uhs1_1247--p3udt17241/Loads.dss
Redirect p3uhs1_1247/p3uhs1_1247--p3udt16112/Loads.dss
Redirect p3uhs24_1247/p3uhs24_1247--p3udt7003/Loads.dss
Redirect p3uhs24_1247/p3uhs24_1247--p3udt10352/Loads.dss
Redirect p3uhs24_1247/p3uhs24_1247--p3udt28157/Loads.dss
Redirect p3uhs25_1247/p3uhs25_1247--p3udt13676/Loads.dss
Redirect p3uhs26_1247/p3uhs26_1247--p3udt15759/Loads.dss
Redirect p3uhs26_1247/p3uhs26_1247--p3udt26126/Loads.dss
Redirect p3uhs9_1247/p3uhs9_1247--p3udt22171/Loads.dss
Redirect p3uhs9_1247/p3uhs9_1247--p3udt16174/Loads.dss
Redirect p3uhs9_1247/p3uhs9_1247--p3udt32034/Loads.dss
Redirect p3uhs27_1247/p3uhs27_1247--p3udt14575/Loads.dss
Redirect p3uhs28_1247/p3uhs28_1247--p3udt23967/Loads.dss
Redirect p3uhs5_1247/LineCodes.dss
Redirect p3uhs5_1247/p3uhs5_1247--p3udt15899/LineCodes.dss
Redirect p3uhs5_1247/p3uhs5_1247--p3udt17790/LineCodes.dss
Redirect p3uhs5_1247/p3uhs5_1247--p3udt31388/LineCodes.dss
Redirect p3uhs5_1247/p3uhs5_1247--p3udt10526/LineCodes.dss
Redirect p3uhs8_1247/LineCodes.dss
Redirect p3uhs8_1247/p3uhs8_1247--p3umv17/LineCodes.dss
Redirect p3uhs8_1247/p3uhs8_1247--p3udt11113/LineCodes.dss
Redirect p3uhs8_1247/p3uhs8_1247--p3udt23566/LineCodes.dss
Redirect p3uhs8_1247/p3uhs8_1247--p3udt31404/LineCodes.dss
Redirect p3uhs16_1247/LineCodes.dss
Redirect p3uhs16_1247/p3uhs16_1247--p3udt16977/LineCodes.dss
Redirect p3uhs16_1247/p3uhs16_1247--p3udt3100/LineCodes.dss
Redirect p3uhs0_1247/p3uhs0_1247--p3udt31121/LineCodes.dss
Redirect p3uhs0_1247/LineCodes.dss
Redirect p3uhs0_1247/p3uhs0_1247--p3udt28845/LineCodes.dss
Redirect p3uhs0_1247/p3uhs0_1247--p3udt22485/LineCodes.dss
Redirect p3uhs18_1247/LineCodes.dss
Redirect p3uhs18_1247/p3uhs18_1247--p3udt32182/LineCodes.dss
Redirect p3uhs18_1247/p3uhs18_1247--p3udt7679/LineCodes.dss
Redirect p3uhs17_1247/LineCodes.dss
Redirect p3uhs17_1247/p3uhs17_1247--p3udt16962/LineCodes.dss
Redirect p3uhs17_1247/p3uhs17_1247--p3udt31765/LineCodes.dss
Redirect p3uhs20_1247/LineCodes.dss
Redirect p3uhs20_1247/p3uhs20_1247--p3udt30735/LineCodes.dss
Redirect p3uhs20_1247/p3uhs20_1247--p3udt15957/LineCodes.dss
Redirect p3uhs20_1247/p3uhs20_1247--p3udt25015/LineCodes.dss
Redirect p3uhs21_1247/LineCodes.dss
Redirect p3uhs21_1247/p3uhs21_1247--p3udt5899/LineCodes.dss
Redirect p3uhs21_1247/p3uhs21_1247--p3udt8885/LineCodes.dss
Redirect p3uhs7_1247/p3uhs7_1247--p3udt25200/LineCodes.dss
Redirect p3uhs7_1247/p3uhs7_1247--p3udt19128/LineCodes.dss
Redirect p3uhs7_1247/p3uhs7_1247--p3udt9478/LineCodes.dss
Redirect p3uhs7_1247/LineCodes.dss
Redirect p3uhs19_1247/p3uhs19_1247--p3udt25232/LineCodes.dss
Redirect p3uhs19_1247/p3uhs19_1247--p3udt13458/LineCodes.dss
Redirect p3uhs19_1247/LineCodes.dss
Redirect p3uhs22_1247/p3uhs22_1247--p3udt14640/LineCodes.dss
Redirect p3uhs22_1247/LineCodes.dss
Redirect p3uhs22_1247/p3uhs22_1247--p3udt29621/LineCodes.dss
Redirect p3uhs3_1247/LineCodes.dss
Redirect p3uhs3_1247/p3uhs3_1247--p3udt31518/LineCodes.dss
Redirect p3uhs3_1247/p3uhs3_1247--p3udt11536/LineCodes.dss
Redirect p3uhs3_1247/p3uhs3_1247--p3udt28548/LineCodes.dss
Redirect p3uhs3_1247/p3uhs3_1247--p3udt20362/LineCodes.dss
Redirect p3uhs3_1247/p3uhs3_1247--p3udt23531/LineCodes.dss
Redirect p3uhs3_1247/p3uhs3_1247--p3udt3889/LineCodes.dss
Redirect p3uhs14_1247/LineCodes.dss
Redirect p3uhs14_1247/p3uhs14_1247--p3udt3365/LineCodes.dss
Redirect p3uhs14_1247/p3uhs14_1247--p3udt2635/LineCodes.dss
Redirect p3uhs14_1247/p3uhs14_1247--p3udt9594/LineCodes.dss
Redirect p3uhs14_1247/p3uhs14_1247--p3udt448/LineCodes.dss
Redirect p3uhs14_1247/p3uhs14_1247--p3udt2638/LineCodes.dss
Redirect p3uhs11_1247/LineCodes.dss
Redirect p3uhs11_1247/p3uhs11_1247--p3udt27353/LineCodes.dss
Redirect p3uhs11_1247/p3uhs11_1247--p3udt20683/LineCodes.dss
Redirect p3uhs13_1247/LineCodes.dss
Redirect p3uhs13_1247/p3uhs13_1247--p3udt26287/LineCodes.dss
Redirect p3uhs13_1247/p3uhs13_1247--p3udt16402/LineCodes.dss
Redirect p3uhs13_1247/p3uhs13_1247--p3udt12740/LineCodes.dss
Redirect p3uhs13_1247/p3uhs13_1247--p3udt28604/LineCodes.dss
Redirect p3uhs4_1247/LineCodes.dss
Redirect p3uhs4_1247/p3uhs4_1247--p3udt9213/LineCodes.dss
Redirect p3uhs4_1247/p3uhs4_1247--p3udt10048/LineCodes.dss
Redirect p3uhs4_1247/p3uhs4_1247--p3udt2856/LineCodes.dss
Redirect p3uhs4_1247/p3uhs4_1247--p3udt14887/LineCodes.dss
Redirect p3uhs10_1247/LineCodes.dss
Redirect p3uhs10_1247/p3uhs10_1247--p3udt18580/LineCodes.dss
Redirect p3uhs10_1247/p3uhs10_1247--p3udt19559/LineCodes.dss
Redirect p3uhs10_1247/p3uhs10_1247--p3udt7392/LineCodes.dss
Redirect p3uhs10_1247/p3uhs10_1247--p3udt19881/LineCodes.dss
Redirect p3uhs15_1247/LineCodes.dss
Redirect p3uhs15_1247/p3uhs15_1247--p3udt21571/LineCodes.dss
Redirect p3uhs15_1247/p3uhs15_1247--p3udt27016/LineCodes.dss
Redirect p3uhs15_1247/p3uhs15_1247--p3udt2707/LineCodes.dss
Redirect p3uhs15_1247/p3uhs15_1247--p3udt29990/LineCodes.dss
Redirect p3uhs15_1247/p3uhs15_1247--p3udt10674/LineCodes.dss
Redirect p3uhs23_1247/p3uhs23_1247--p3udt6423/LineCodes.dss
Redirect p3uhs23_1247/p3uhs23_1247--p3udt18382/LineCodes.dss
Redirect p3uhs23_1247/p3uhs23_1247--p3udt10896/LineCodes.dss
Redirect p3uhs23_1247/LineCodes.dss
Redirect p3uhs6_1247/LineCodes.dss
Redirect p3uhs6_1247/p3uhs6_1247--p3udt18941/LineCodes.dss
Redirect p3uhs6_1247/p3uhs6_1247--p3udt31448/LineCodes.dss
Redirect p3uhs6_1247/p3uhs6_1247--p3udt31726/LineCodes.dss
Redirect p3uhs12_1247/LineCodes.dss
Redirect p3uhs12_1247/p3uhs12_1247--p3udt14918/LineCodes.dss
Redirect p3uhs12_1247/p3uhs12_1247--p3udt18678/LineCodes.dss
Redirect p3uhs12_1247/p3uhs12_1247--p3udt23934/LineCodes.dss
Redirect p3uhs12_1247/p3uhs12_1247--p3udt14513/LineCodes.dss
Redirect p3uhs2_1247/LineCodes.dss
Redirect p3uhs2_1247/p3uhs2_1247--p3udt18029/LineCodes.dss
Redirect p3uhs2_1247/p3uhs2_1247--p3udt11804/LineCodes.dss
Redirect p3uhs2_1247/p3uhs2_1247--p3udt31865/LineCodes.dss
Redirect p3uhs2_1247/p3uhs2_1247--p3umv14/LineCodes.dss
Redirect p3uhs2_1247/p3uhs2_1247--p3udt23951/LineCodes.dss
Redirect p3uhs2_1247/p3uhs2_1247--p3umv35/LineCodes.dss
Redirect p3uhs2_1247/p3uhs2_1247--p3udt27289/LineCodes.dss
Redirect p3uhs2_1247/p3uhs2_1247--p3udt20296/LineCodes.dss
Redirect p3uhs2_1247/p3uhs2_1247--p3udt20299/LineCodes.dss
Redirect p3uhs2_1247/p3uhs2_1247--p3udt24404/LineCodes.dss
Redirect p3uhs1_1247/LineCodes.dss
Redirect p3uhs1_1247/p3uhs1_1247--p3udt17241/LineCodes.dss
Redirect p3uhs1_1247/p3uhs1_1247--p3udt16112/LineCodes.dss
Redirect p3uhs24_1247/LineCodes.dss
Redirect p3uhs24_1247/p3uhs24_1247--p3udt7003/LineCodes.dss
Redirect p3uhs24_1247/p3uhs24_1247--p3udt10352/LineCodes.dss
Redirect p3uhs24_1247/p3uhs24_1247--p3udt28157/LineCodes.dss
Redirect p3uhs25_1247/LineCodes.dss
Redirect p3uhs25_1247/p3uhs25_1247--p3udt13676/LineCodes.dss
Redirect p3uhs26_1247/p3uhs26_1247--p3udt15759/LineCodes.dss
Redirect p3uhs26_1247/LineCodes.dss
Redirect p3uhs26_1247/p3uhs26_1247--p3udt26126/LineCodes.dss
Redirect p3uhs9_1247/LineCodes.dss
Redirect p3uhs9_1247/p3uhs9_1247--p3udt22171/LineCodes.dss
Redirect p3uhs9_1247/p3uhs9_1247--p3udt16174/LineCodes.dss
Redirect p3uhs9_1247/p3uhs9_1247--p3udt32034/LineCodes.dss
Redirect p3uhs27_1247/LineCodes.dss
Redirect p3uhs27_1247/p3uhs27_1247--p3udt14575/LineCodes.dss
Redirect subtransmission/LineCodes.dss
Redirect p3uhs28_1247/LineCodes.dss
Redirect p3uhs28_1247/p3uhs28_1247--p3udt23967/LineCodes.dss
Redirect p3uhs5_1247/Lines.dss
Redirect p3uhs5_1247/p3uhs5_1247--p3udt15899/Lines.dss
Redirect p3uhs5_1247/p3uhs5_1247--p3udt17790/Lines.dss
Redirect p3uhs5_1247/p3uhs5_1247--p3udt31388/Lines.dss
Redirect p3uhs5_1247/p3uhs5_1247--p3udt10526/Lines.dss
Redirect p3uhs8_1247/Lines.dss
Redirect p3uhs8_1247/p3uhs8_1247--p3umv17/Lines.dss
Redirect p3uhs8_1247/p3uhs8_1247--p3udt11113/Lines.dss
Redirect p3uhs8_1247/p3uhs8_1247--p3udt23566/Lines.dss
Redirect p3uhs8_1247/p3uhs8_1247--p3udt31404/Lines.dss
Redirect p3uhs16_1247/Lines.dss
Redirect p3uhs16_1247/p3uhs16_1247--p3udt16977/Lines.dss
Redirect p3uhs16_1247/p3uhs16_1247--p3udt3100/Lines.dss
Redirect p3uhs0_1247/p3uhs0_1247--p3udt31121/Lines.dss
Redirect p3uhs0_1247/Lines.dss
Redirect p3uhs0_1247/p3uhs0_1247--p3udt28845/Lines.dss
Redirect p3uhs0_1247/p3uhs0_1247--p3udt22485/Lines.dss
Redirect p3uhs18_1247/Lines.dss
Redirect p3uhs18_1247/p3uhs18_1247--p3udt32182/Lines.dss
Redirect p3uhs18_1247/p3uhs18_1247--p3udt7679/Lines.dss
Redirect p3uhs17_1247/Lines.dss
Redirect p3uhs17_1247/p3uhs17_1247--p3udt16962/Lines.dss
Redirect p3uhs17_1247/p3uhs17_1247--p3udt31765/Lines.dss
Redirect p3uhs20_1247/Lines.dss
Redirect p3uhs20_1247/p3uhs20_1247--p3udt30735/Lines.dss
Redirect p3uhs20_1247/p3uhs20_1247--p3udt15957/Lines.dss
Redirect p3uhs20_1247/p3uhs20_1247--p3udt25015/Lines.dss
Redirect p3uhs21_1247/Lines.dss
Redirect p3uhs21_1247/p3uhs21_1247--p3udt5899/Lines.dss
Redirect p3uhs21_1247/p3uhs21_1247--p3udt8885/Lines.dss
Redirect p3uhs7_1247/p3uhs7_1247--p3udt25200/Lines.dss
Redirect p3uhs7_1247/p3uhs7_1247--p3udt19128/Lines.dss
Redirect p3uhs7_1247/p3uhs7_1247--p3udt9478/Lines.dss
Redirect p3uhs7_1247/Lines.dss
Redirect p3uhs19_1247/p3uhs19_1247--p3udt25232/Lines.dss
Redirect p3uhs19_1247/p3uhs19_1247--p3udt13458/Lines.dss
Redirect p3uhs19_1247/Lines.dss
Redirect p3uhs22_1247/p3uhs22_1247--p3udt14640/Lines.dss
Redirect p3uhs22_1247/Lines.dss
Redirect p3uhs22_1247/p3uhs22_1247--p3udt29621/Lines.dss
Redirect p3uhs3_1247/Lines.dss
Redirect p3uhs3_1247/p3uhs3_1247--p3udt31518/Lines.dss
Redirect p3uhs3_1247/p3uhs3_1247--p3udt11536/Lines.dss
Redirect p3uhs3_1247/p3uhs3_1247--p3udt28548/Lines.dss
Redirect p3uhs3_1247/p3uhs3_1247--p3udt20362/Lines.dss
Redirect p3uhs3_1247/p3uhs3_1247--p3udt23531/Lines.dss
Redirect p3uhs3_1247/p3uhs3_1247--p3udt3889/Lines.dss
Redirect p3uhs14_1247/Lines.dss
Redirect p3uhs14_1247/p3uhs14_1247--p3udt3365/Lines.dss
Redirect p3uhs14_1247/p3uhs14_1247--p3udt2635/Lines.dss
Redirect p3uhs14_1247/p3uhs14_1247--p3udt9594/Lines.dss
Redirect p3uhs14_1247/p3uhs14_1247--p3udt448/Lines.dss
Redirect p3uhs14_1247/p3uhs14_1247--p3udt2638/Lines.dss
Redirect p3uhs11_1247/Lines.dss
Redirect p3uhs11_1247/p3uhs11_1247--p3udt27353/Lines.dss
Redirect p3uhs11_1247/p3uhs11_1247--p3udt20683/Lines.dss
Redirect p3uhs13_1247/Lines.dss
Redirect p3uhs13_1247/p3uhs13_1247--p3udt26287/Lines.dss
Redirect p3uhs13_1247/p3uhs13_1247--p3udt16402/Lines.dss
Redirect p3uhs13_1247/p3uhs13_1247--p3udt12740/Lines.dss
Redirect p3uhs13_1247/p3uhs13_1247--p3udt28604/Lines.dss
Redirect p3uhs4_1247/Lines.dss
Redirect p3uhs4_1247/p3uhs4_1247--p3udt9213/Lines.dss
Redirect p3uhs4_1247/p3uhs4_1247--p3udt10048/Lines.dss
Redirect p3uhs4_1247/p3uhs4_1247--p3udt2856/Lines.dss
Redirect p3uhs4_1247/p3uhs4_1247--p3udt14887/Lines.dss
Redirect p3uhs10_1247/Lines.dss
Redirect p3uhs10_1247/p3uhs10_1247--p3udt18580/Lines.dss
Redirect p3uhs10_1247/p3uhs10_1247--p3udt19559/Lines.dss
Redirect p3uhs10_1247/p3uhs10_1247--p3udt7392/Lines.dss
Redirect p3uhs10_1247/p3uhs10_1247--p3udt19881/Lines.dss
Redirect p3uhs15_1247/Lines.dss
Redirect p3uhs15_1247/p3uhs15_1247--p3udt21571/Lines.dss
Redirect p3uhs15_1247/p3uhs15_1247--p3udt27016/Lines.dss
Redirect p3uhs15_1247/p3uhs15_1247--p3udt2707/Lines.dss
Redirect p3uhs15_1247/p3uhs15_1247--p3udt29990/Lines.dss
Redirect p3uhs15_1247/p3uhs15_1247--p3udt10674/Lines.dss
Redirect p3uhs23_1247/p3uhs23_1247--p3udt6423/Lines.dss
Redirect p3uhs23_1247/p3uhs23_1247--p3udt18382/Lines.dss
Redirect p3uhs23_1247/p3uhs23_1247--p3udt10896/Lines.dss
Redirect p3uhs23_1247/Lines.dss
Redirect p3uhs6_1247/Lines.dss
Redirect p3uhs6_1247/p3uhs6_1247--p3udt18941/Lines.dss
Redirect p3uhs6_1247/p3uhs6_1247--p3udt31448/Lines.dss
Redirect p3uhs6_1247/p3uhs6_1247--p3udt31726/Lines.dss
Redirect p3uhs12_1247/Lines.dss
Redirect p3uhs12_1247/p3uhs12_1247--p3udt14918/Lines.dss
Redirect p3uhs12_1247/p3uhs12_1247--p3udt18678/Lines.dss
Redirect p3uhs12_1247/p3uhs12_1247--p3udt23934/Lines.dss
Redirect p3uhs12_1247/p3uhs12_1247--p3udt14513/Lines.dss
Redirect p3uhs2_1247/Lines.dss
Redirect p3uhs2_1247/p3uhs2_1247--p3udt18029/Lines.dss
Redirect p3uhs2_1247/p3uhs2_1247--p3udt11804/Lines.dss
Redirect p3uhs2_1247/p3uhs2_1247--p3udt31865/Lines.dss
Redirect p3uhs2_1247/p3uhs2_1247--p3umv14/Lines.dss
Redirect p3uhs2_1247/p3uhs2_1247--p3udt23951/Lines.dss
Redirect p3uhs2_1247/p3uhs2_1247--p3umv35/Lines.dss
Redirect p3uhs2_1247/p3uhs2_1247--p3udt27289/Lines.dss
Redirect p3uhs2_1247/p3uhs2_1247--p3udt20296/Lines.dss
Redirect p3uhs2_1247/p3uhs2_1247--p3udt20299/Lines.dss
Redirect p3uhs2_1247/p3uhs2_1247--p3udt24404/Lines.dss
Redirect p3uhs1_1247/Lines.dss
Redirect p3uhs1_1247/p3uhs1_1247--p3udt17241/Lines.dss
Redirect p3uhs1_1247/p3uhs1_1247--p3udt16112/Lines.dss
Redirect p3uhs24_1247/Lines.dss
Redirect p3uhs24_1247/p3uhs24_1247--p3udt7003/Lines.dss
Redirect p3uhs24_1247/p3uhs24_1247--p3udt10352/Lines.dss
Redirect p3uhs24_1247/p3uhs24_1247--p3udt28157/Lines.dss
Redirect p3uhs25_1247/Lines.dss
Redirect p3uhs25_1247/p3uhs25_1247--p3udt13676/Lines.dss
Redirect p3uhs26_1247/p3uhs26_1247--p3udt15759/Lines.dss
Redirect p3uhs26_1247/Lines.dss
Redirect p3uhs26_1247/p3uhs26_1247--p3udt26126/Lines.dss
Redirect p3uhs9_1247/Lines.dss
Redirect p3uhs9_1247/p3uhs9_1247--p3udt22171/Lines.dss
Redirect p3uhs9_1247/p3uhs9_1247--p3udt16174/Lines.dss
Redirect p3uhs9_1247/p3uhs9_1247--p3udt32034/Lines.dss
Redirect p3uhs27_1247/Lines.dss
Redirect p3uhs27_1247/p3uhs27_1247--p3udt14575/Lines.dss
Redirect subtransmission/Lines.dss
Redirect p3uhs28_1247/Lines.dss
Redirect p3uhs28_1247/p3uhs28_1247--p3udt23967/Lines.dss
Redirect p3uhs0_1247/p3uhs0_1247--p3udt31121/Capacitors.dss
Redirect p3uhs0_1247/p3uhs0_1247--p3udt28845/Capacitors.dss
Redirect p3uhs0_1247/p3uhs0_1247--p3udt22485/Capacitors.dss
Redirect p3uhs1_1247/p3uhs1_1247--p3udt17241/Capacitors.dss
Redirect p3uhs1_1247/p3uhs1_1247--p3udt16112/Capacitors.dss
Redirect p3uhs2_1247/p3uhs2_1247--p3udt11804/Capacitors.dss
Redirect p3uhs2_1247/p3uhs2_1247--p3udt31865/Capacitors.dss
Redirect p3uhs2_1247/p3uhs2_1247--p3umv14/Capacitors.dss
Redirect p3uhs2_1247/p3uhs2_1247--p3umv35/Capacitors.dss
Redirect p3uhs2_1247/p3uhs2_1247--p3udt27289/Capacitors.dss
Redirect p3uhs2_1247/p3uhs2_1247--p3udt20296/Capacitors.dss
Redirect p3uhs2_1247/p3uhs2_1247--p3udt24404/Capacitors.dss
Redirect p3uhs3_1247/p3uhs3_1247--p3udt20362/Capacitors.dss
Redirect p3uhs3_1247/p3uhs3_1247--p3udt3889/Capacitors.dss
Redirect p3uhs3_1247/p3uhs3_1247--p3udt31518/Capacitors.dss
Redirect p3uhs3_1247/p3uhs3_1247--p3udt11536/Capacitors.dss
Redirect p3uhs4_1247/p3uhs4_1247--p3udt9213/Capacitors.dss
Redirect p3uhs4_1247/p3uhs4_1247--p3udt14887/Capacitors.dss
Redirect p3uhs5_1247/p3uhs5_1247--p3udt15899/Capacitors.dss
Redirect p3uhs5_1247/p3uhs5_1247--p3udt17790/Capacitors.dss
Redirect p3uhs5_1247/p3uhs5_1247--p3udt10526/Capacitors.dss
Redirect p3uhs6_1247/p3uhs6_1247--p3udt18941/Capacitors.dss
Redirect p3uhs6_1247/p3uhs6_1247--p3udt31448/Capacitors.dss
Redirect p3uhs6_1247/p3uhs6_1247--p3udt31726/Capacitors.dss
Redirect p3uhs7_1247/p3uhs7_1247--p3udt9478/Capacitors.dss
Redirect p3uhs8_1247/p3uhs8_1247--p3udt31404/Capacitors.dss
Redirect p3uhs8_1247/p3uhs8_1247--p3umv17/Capacitors.dss
Redirect p3uhs8_1247/p3uhs8_1247--p3udt11113/Capacitors.dss
Redirect p3uhs9_1247/p3uhs9_1247--p3udt22171/Capacitors.dss
Redirect p3uhs9_1247/p3uhs9_1247--p3udt16174/Capacitors.dss
Redirect p3uhs9_1247/p3uhs9_1247--p3udt32034/Capacitors.dss
Redirect p3uhs10_1247/p3uhs10_1247--p3udt7392/Capacitors.dss
Redirect p3uhs10_1247/p3uhs10_1247--p3udt19559/Capacitors.dss
Redirect p3uhs10_1247/p3uhs10_1247--p3udt19881/Capacitors.dss
Redirect p3uhs10_1247/p3uhs10_1247--p3udt18580/Capacitors.dss
Redirect p3uhs11_1247/p3uhs11_1247--p3udt27353/Capacitors.dss
Redirect p3uhs11_1247/p3uhs11_1247--p3udt20683/Capacitors.dss
Redirect p3uhs12_1247/p3uhs12_1247--p3udt14513/Capacitors.dss
Redirect p3uhs12_1247/p3uhs12_1247--p3udt14918/Capacitors.dss
Redirect p3uhs12_1247/p3uhs12_1247--p3udt18678/Capacitors.dss
Redirect p3uhs12_1247/p3uhs12_1247--p3udt23934/Capacitors.dss
Redirect p3uhs13_1247/p3uhs13_1247--p3udt26287/Capacitors.dss
Redirect p3uhs13_1247/p3uhs13_1247--p3udt28604/Capacitors.dss
Redirect p3uhs13_1247/p3uhs13_1247--p3udt12740/Capacitors.dss
Redirect p3uhs14_1247/p3uhs14_1247--p3udt2638/Capacitors.dss
Redirect p3uhs14_1247/p3uhs14_1247--p3udt2635/Capacitors.dss
Redirect p3uhs14_1247/p3uhs14_1247--p3udt9594/Capacitors.dss
Redirect p3uhs14_1247/p3uhs14_1247--p3udt3365/Capacitors.dss
Redirect p3uhs15_1247/p3uhs15_1247--p3udt29990/Capacitors.dss
Redirect p3uhs15_1247/p3uhs15_1247--p3udt10674/Capacitors.dss
Redirect p3uhs15_1247/p3uhs15_1247--p3udt27016/Capacitors.dss
Redirect p3uhs15_1247/p3uhs15_1247--p3udt2707/Capacitors.dss
Redirect p3uhs16_1247/p3uhs16_1247--p3udt3100/Capacitors.dss
Redirect p3uhs17_1247/p3uhs17_1247--p3udt16962/Capacitors.dss
Redirect p3uhs17_1247/p3uhs17_1247--p3udt31765/Capacitors.dss
Redirect p3uhs18_1247/p3uhs18_1247--p3udt32182/Capacitors.dss
Redirect p3uhs18_1247/p3uhs18_1247--p3udt7679/Capacitors.dss
Redirect p3uhs19_1247/p3uhs19_1247--p3udt25232/Capacitors.dss
Redirect p3uhs19_1247/p3uhs19_1247--p3udt13458/Capacitors.dss
Redirect p3uhs20_1247/p3uhs20_1247--p3udt30735/Capacitors.dss
Redirect p3uhs20_1247/p3uhs20_1247--p3udt15957/Capacitors.dss
Redirect p3uhs20_1247/p3uhs20_1247--p3udt25015/Capacitors.dss
Redirect p3uhs21_1247/p3uhs21_1247--p3udt5899/Capacitors.dss
Redirect p3uhs21_1247/p3uhs21_1247--p3udt8885/Capacitors.dss
Redirect p3uhs22_1247/p3uhs22_1247--p3udt14640/Capacitors.dss
Redirect p3uhs22_1247/p3uhs22_1247--p3udt29621/Capacitors.dss
Redirect p3uhs23_1247/p3uhs23_1247--p3udt6423/Capacitors.dss
Redirect p3uhs23_1247/p3uhs23_1247--p3udt18382/Capacitors.dss
Redirect p3uhs23_1247/p3uhs23_1247--p3udt10896/Capacitors.dss
Redirect p3uhs24_1247/p3uhs24_1247--p3udt7003/Capacitors.dss
Redirect p3uhs24_1247/p3uhs24_1247--p3udt10352/Capacitors.dss
Redirect p3uhs24_1247/p3uhs24_1247--p3udt28157/Capacitors.dss
Redirect p3uhs25_1247/p3uhs25_1247--p3udt13676/Capacitors.dss
Redirect p3uhs26_1247/p3uhs26_1247--p3udt15759/Capacitors.dss
Redirect p3uhs26_1247/p3uhs26_1247--p3udt26126/Capacitors.dss
Redirect p3uhs27_1247/p3uhs27_1247--p3udt14575/Capacitors.dss
Redirect p3uhs28_1247/p3uhs28_1247--p3udt23967/Capacitors.dss

Set Voltagebases=[0.2080002494301389, 0.48, 7.199560000000001, 12.47, 69.0, 230.0]

Calcvoltagebases

Buscoords Buscoords.dss

Solve