electric-grid/physical/synthetic/synAustinTD/models/syn-austin-D_only-v03/P3U/base/opendss/p3uhs8_1247/p3uhs8_1247--p3umv17/Transformers.dss
New Transformer.tr(r:p3udt3-p3udt3lv) phases=3 windings=2 %loadloss=2.1568 %Noloadloss=0.516667 normhkva=165.0 wdg=1 conn=wye Kv=12.47 kva=150.0 EmergHKVA=225.0 %R=1.0784 bus=p3udt3 wdg=2 conn=wye Kv=0.48 kva=150.0 EmergHKVA=225.0 %R=1.0784 bus=p3udt3lv XHL=3.39

New Transformer.tr(r:p3udt6-p3udt6lv) phases=1 windings=3 %loadloss=0.49926 %Noloadloss=0.38 normhkva=82.5 wdg=1 conn=wye bus=p3udt6.3 Kv=7.199560000000001 kva=75.0 EmergHKVA=112.5 %r=0.16642 wdg=2 conn=wye bus=p3udt6lv.1.0 Kv=0.120089 kva=75.0 EmergHKVA=112.5 %r=0.33284 wdg=3 conn=wye bus=p3udt6lv.0.2 Kv=0.120089 kva=75.0 EmergHKVA=112.5 %r=0.33284 XHL=2.4 XLT=2.4 XHT=1.6

New Transformer.tr(r:p3udt15-p3udt15lv) phases=1 windings=3 %loadloss=0.798816 %Noloadloss=0.37 normhkva=55.0 wdg=1 conn=wye bus=p3udt15.2 Kv=7.199560000000001 kva=50.0 EmergHKVA=75.0 %r=0.266272 wdg=2 conn=wye bus=p3udt15lv.1.0 Kv=0.120089 kva=50.0 EmergHKVA=75.0 %r=0.532544 wdg=3 conn=wye bus=p3udt15lv.0.2 Kv=0.120089 kva=50.0 EmergHKVA=75.0 %r=0.532544 XHL=2.4 XLT=2.4 XHT=1.6

New Transformer.tr(r:p3udt17-p3udt17lv) phases=1 windings=3 %loadloss=0.798816 %Noloadloss=0.37 normhkva=55.0 wdg=1 conn=wye bus=p3udt17.3 Kv=7.199560000000001 kva=50.0 EmergHKVA=75.0 %r=0.266272 wdg=2 conn=wye bus=p3udt17lv.1.0 Kv=0.120089 kva=50.0 EmergHKVA=75.0 %r=0.532544 wdg=3 conn=wye bus=p3udt17lv.0.2 Kv=0.120089 kva=50.0 EmergHKVA=75.0 %r=0.532544 XHL=2.4 XLT=2.4 XHT=1.6

New Transformer.tr(r:p3udt18-p3udt18lv) phases=1 windings=3 %loadloss=0.49926 %Noloadloss=0.38 normhkva=82.5 wdg=1 conn=wye bus=p3udt18.1 Kv=7.199560000000001 kva=75.0 EmergHKVA=112.5 %r=0.16642 wdg=2 conn=wye bus=p3udt18lv.1.0 Kv=0.120089 kva=75.0 EmergHKVA=112.5 %r=0.33284 wdg=3 conn=wye bus=p3udt18lv.0.2 Kv=0.120089 kva=75.0 EmergHKVA=112.5 %r=0.33284 XHL=2.4 XLT=2.4 XHT=1.6

New Transformer.tr(r:p3udt25-p3udt25lv) phases=1 windings=3 %loadloss=0.49926 %Noloadloss=0.38 normhkva=82.5 wdg=1 conn=wye bus=p3udt25.1 Kv=7.199560000000001 kva=75.0 EmergHKVA=112.5 %r=0.16642 wdg=2 conn=wye bus=p3udt25lv.1.0 Kv=0.120089 kva=75.0 EmergHKVA=112.5 %r=0.33284 wdg=3 conn=wye bus=p3udt25lv.0.2 Kv=0.120089 kva=75.0 EmergHKVA=112.5 %r=0.33284 XHL=2.4 XLT=2.4 XHT=1.6

New Transformer.tr(r:p3udt27-p3udt27lv) phases=1 windings=3 %loadloss=0.798816 %Noloadloss=0.37 normhkva=55.0 wdg=1 conn=wye bus=p3udt27.1 Kv=7.199560000000001 kva=50.0 EmergHKVA=75.0 %r=0.266272 wdg=2 conn=wye bus=p3udt27lv.1.0 Kv=0.120089 kva=50.0 EmergHKVA=75.0 %r=0.532544 wdg=3 conn=wye bus=p3udt27lv.0.2 Kv=0.120089 kva=50.0 EmergHKVA=75.0 %r=0.532544 XHL=2.4 XLT=2.4 XHT=1.6

New Transformer.tr(r:p3udt29-p3udt29lv) phases=3 windings=2 %loadloss=1.74408 %Noloadloss=0.6 normhkva=82.5 wdg=1 conn=wye Kv=12.47 kva=75.0 EmergHKVA=112.5 %R=0.87204 bus=p3udt29 wdg=2 conn=wye Kv=0.48 kva=75.0 EmergHKVA=112.5 %R=0.87204 bus=p3udt29lv XHL=3.2400000000000007

New Transformer.tr(r:p3udt30-p3udt30lv) phases=3 windings=2 %loadloss=1.61095 %Noloadloss=0.62 normhkva=110.0 wdg=1 conn=wye Kv=12.47 kva=100.0 EmergHKVA=150.0 %R=0.805475 bus=p3udt30 wdg=2 conn=wye Kv=0.48 kva=100.0 EmergHKVA=150.0 %R=0.805475 bus=p3udt30lv XHL=3.29

New Transformer.tr(r:p3udt35-p3udt35lv) phases=1 windings=3 %loadloss=0.798816 %Noloadloss=0.472 normhkva=27.5 wdg=1 conn=wye bus=p3udt35.3 Kv=7.199560000000001 kva=25.0 EmergHKVA=37.5 %r=0.266272 wdg=2 conn=wye bus=p3udt35lv.1.0 Kv=0.120089 kva=25.0 EmergHKVA=37.5 %r=0.532544 wdg=3 conn=wye bus=p3udt35lv.0.2 Kv=0.120089 kva=25.0 EmergHKVA=37.5 %r=0.532544 XHL=2.4 XLT=2.4 XHT=1.6

New Transformer.tr(r:p3udt37-p3udt37lv) phases=1 windings=3 %loadloss=0.49926 %Noloadloss=0.38 normhkva=82.5 wdg=1 conn=wye bus=p3udt37.1 Kv=7.199560000000001 kva=75.0 EmergHKVA=112.5 %r=0.16642 wdg=2 conn=wye bus=p3udt37lv.1.0 Kv=0.120089 kva=75.0 EmergHKVA=112.5 %r=0.33284 wdg=3 conn=wye bus=p3udt37lv.0.2 Kv=0.120089 kva=75.0 EmergHKVA=112.5 %r=0.33284 XHL=2.4 XLT=2.4 XHT=1.6

New Transformer.tr(r:p3udt42-p3udt42lv) phases=1 windings=3 %loadloss=0.798816 %Noloadloss=0.37 normhkva=55.0 wdg=1 conn=wye bus=p3udt42.1 Kv=7.199560000000001 kva=50.0 EmergHKVA=75.0 %r=0.266272 wdg=2 conn=wye bus=p3udt42lv.1.0 Kv=0.120089 kva=50.0 EmergHKVA=75.0 %r=0.532544 wdg=3 conn=wye bus=p3udt42lv.0.2 Kv=0.120089 kva=50.0 EmergHKVA=75.0 %r=0.532544 XHL=2.4 XLT=2.4 XHT=1.6

New Transformer.tr(r:p3udt51-p3udt51lv) phases=1 windings=3 %loadloss=0.49926 %Noloadloss=0.38 normhkva=82.5 wdg=1 conn=wye bus=p3udt51.3 Kv=7.199560000000001 kva=75.0 EmergHKVA=112.5 %r=0.16642 wdg=2 conn=wye bus=p3udt51lv.1.0 Kv=0.120089 kva=75.0 EmergHKVA=112.5 %r=0.33284 wdg=3 conn=wye bus=p3udt51lv.0.2 Kv=0.120089 kva=75.0 EmergHKVA=112.5 %r=0.33284 XHL=2.4 XLT=2.4 XHT=1.6

...